tests/inputs/res/initial_conditions_OK.iidm
<?xml version="1.0" encoding="ISO-8859-1" standalone="no"?>
<!--
    Copyright (c) 2015-2024, RTE (http://www.rte-france.com)
    See AUTHORS.txt
    All rights reserved.
    This Source Code Form is subject to the terms of the Mozilla Public
    License, v. 2.0. If a copy of the MPL was not distributed with this
    file, you can obtain one at http://mozilla.org/MPL/2.0/.
    SPDX-License-Identifier: MPL-2.0

    This file is part of Dynawo, a hybrid C++/Modelica open source suite of
    simulation tools for power systems.
-->
<network xmlns:iidm="http://www.itesla_project.eu/schema/iidm/1_0" id="initialconditions" caseDate="2024-02-23T10:14:24.146+02:00" forecastDistance="0" sourceFormat="CIM1">
  <substation id="S1" name="S1_NAME" country="AF">
    <voltageLevel id="VL1" name="VL1_NAME" nominalV="400" topologyKind="BUS_BREAKER">
      <busBreakerTopology>
        <bus id="VL1_BUS1" v="400.00000000003996" angle="0.016411483726015388"/>
      </busBreakerTopology>
      <generator id="GEN1" name="GEN1_NAME" energySource="OTHER" minP="-9999" maxP="9999" voltageRegulatorOn="true" targetP="1000" targetQ="0" targetV="400" bus="VL1_BUS1" connectableBus="VL1_BUS1" p="0.0" q="0.0">
      </generator>
    </voltageLevel>
  </substation>
  <substation id="S2" name="S2_NAME" country="AF">
    <voltageLevel id="VL2" name="VL2_NAME" nominalV="400" topologyKind="BUS_BREAKER">
      <busBreakerTopology>
        <bus id="VL2_BUS1" v="400.00000000003996" angle="0.016411483726015388"/>
      </busBreakerTopology>
      <danglingLine id="DANGLING_LINE1" name="DANGLING_LINE1_NAME" p0="3.0" q0="4.0" r="5.0" x="6.0" g="2.0" b="1.0" bus="VL2_BUS1" connectableBus="VL2_BUS1" p="0.0" q="0.0">
      </danglingLine>
    </voltageLevel>
  </substation>
  <substation id="S3" name="S3_NAME" country="AF">
    <voltageLevel id="VL3" name="VL3_NAME" nominalV="400" topologyKind="BUS_BREAKER">
      <busBreakerTopology>
        <bus id="VL3_BUS1" v="400.00000000003996" angle="0.016411483726015388"/>
      </busBreakerTopology>
      <load id="VL3_LOAD1" name="VL3_LOAD1_NAME" loadType="UNDEFINED" p0="500" q0="0" bus="VL3_BUS1" connectableBus="VL3_BUS1" p="500.0" q="0"/>
      <lccConverterStation id="LCCStation1" name="S1" lossFactor="0" powerFactor="-1" bus="VL3_BUS1" connectableBus="VL3_BUS1" p="-100" q="-0"/>
      <vscConverterStation id="VSCStation1" name="VSCS1" voltageRegulatorOn="true" lossFactor="0" voltageSetpoint="399.0" reactivePowerSetpoint="0" bus="VL3_BUS1" connectableBus="VL3_BUS1" p="-100" q="0">
        <reactiveCapabilityCurve>
          <point p="-1011" minQ="-300" maxQ="300"/>
          <point p="0" minQ="-600" maxQ="400"/>
          <point p="1011" minQ="-300" maxQ="300"/>
        </reactiveCapabilityCurve>
      </vscConverterStation>
    </voltageLevel>
  </substation>
  <substation id="S4" name="S4_NAME" country="AF">
    <voltageLevel id="VL4" name="VL4_NAME" nominalV="400" topologyKind="BUS_BREAKER">
      <busBreakerTopology>
        <bus id="VL4_BUS1" v="400.00000000003996" angle="0.016411483726015388"/>
      </busBreakerTopology>
      <load id="VL4_LOAD1" name="VL4_LOAD1_NAME" loadType="UNDEFINED" p0="500" q0="0" bus="VL4_BUS1" connectableBus="VL4_BUS1" p="500.0" q="0"/>
      <lccConverterStation id="LCCStation2" name="S2" lossFactor="0" powerFactor="-1" bus="VL4_BUS1" connectableBus="VL4_BUS1" p="-100" q="-0"/>
      <vscConverterStation id="VSCStation2" name="VSCS2" voltageRegulatorOn="true" lossFactor="0" voltageSetpoint="399.0" reactivePowerSetpoint="0" bus="VL4_BUS1" connectableBus="VL4_BUS1" p="-100" q="0">
        <reactiveCapabilityCurve>
          <point p="-1011" minQ="-300" maxQ="300"/>
          <point p="0" minQ="-600" maxQ="400"/>
          <point p="1011" minQ="-300" maxQ="300"/>
        </reactiveCapabilityCurve>
      </vscConverterStation>
    </voltageLevel>
  </substation>
  <substation id="S5" name="S5_NAME" country="AF">
    <voltageLevel id="VL5" name="VL5_NAME" nominalV="400" topologyKind="BUS_BREAKER">
      <busBreakerTopology>
        <bus id="VL5_BUS1" v="400.00000000003996" angle="0.016411483726015388"/>
      </busBreakerTopology>
      <load id="VL5_LOAD1" name="VL5_LOAD1_NAME" loadType="UNDEFINED" p0="500" q0="0" bus="VL5_BUS1" connectableBus="VL5_BUS1" p="500.0" q="0"/>
      <shunt id="VL5_SHUNT1" name="VL5_SHUNT1" bPerSection="0.0015802469570189714" maximumSectionCount="1" currentSectionCount="1" bus="VL5_BUS1" connectableBus="VL5_BUS1" q="-80"/>
    </voltageLevel>
    <voltageLevel id="VL5b" name="VL5b_NAME" nominalV="150" topologyKind="BUS_BREAKER">
      <busBreakerTopology>
        <bus id="VL5b_BUS1" v="150.00000000003996" angle="0.016411483726015388"/>
      </busBreakerTopology>
      <load id="VL5b_LOAD1" name="VL5b_LOAD1_NAME" loadType="UNDEFINED" p0="500" q0="0" bus="VL5b_BUS1" connectableBus="VL5b_BUS1" p="500.0" q="0"/>
    </voltageLevel>
    <twoWindingsTransformer id="TWOWT1" r="0.4699999988079071" x="39.699996948242188" g="0" b="0" ratedU1="150" ratedU2="400" voltageLevelId1="VL5" bus1="VL5_BUS1" connectableBus1="VL5_BUS1" voltageLevelId2="VL5b" bus2="VL5b_BUS1" connectableBus2="VL5b_BUS1" p1="-840.32451026110664" q1="93.945561973039389" p2="842.54143914694362" q2="93.314161910865138">
    </twoWindingsTransformer>
  </substation>
  <substation id="S6" name="S6_NAME" country="AF">
    <voltageLevel id="VL6" name="VL6_NAME" nominalV="400" topologyKind="BUS_BREAKER">
      <busBreakerTopology>
        <bus id="VL6_BUS1" v="400.00000000003996" angle="0.016411483726015388"/>
      </busBreakerTopology>
      <staticVarCompensator id="SVC1" name="SVC1_NAME" bMin="-10" bMax="10" reactivePowerSetpoint="90.0" regulationMode="OFF" bus="VL6_BUS1" p="0.0" q="0.0">
      </staticVarCompensator>
    </voltageLevel>
  </substation>
  <line id="L1" name="L1_NAME" r="4.559999942779541" x="33.779998779296875" g1="0" b1="0.0001177340091089718" g2="0" b2="0.00011775099847000092" voltageLevelId1="VL1" bus1="VL1_BUS1" connectableBus1="VL1_BUS1" voltageLevelId2="VL2" bus2="VL2_BUS1" connectableBus2="VL2_BUS1" p1="24.872959641591997" q1="2.4096398705110875" p2="-24.81398121673395" q2="-14.531691689488301">
  </line>
  <hvdcLine id="HVDCLCCLine" r="0.02" nominalV="400" convertersMode="SIDE_1_INVERTER_SIDE_2_RECTIFIER" activePowerSetpoint="100" maxP="2000" converterStation1="LCCStation1" converterStation2="LCCStation2"/>
  <hvdcLine id="HVDCVSCLine" r="0.02" nominalV="400" convertersMode="SIDE_1_INVERTER_SIDE_2_RECTIFIER" activePowerSetpoint="100" maxP="2000" converterStation1="VSCStation2" converterStation2="VSCStation1"/>
  </network>
